Version 4
SHEET 1 6748 1644
WIRE 304 -1008 304 -1040
WIRE 496 -1008 304 -1008
WIRE 240 -976 240 -1040
WIRE 496 -976 240 -976
WIRE 608 -960 608 -992
WIRE 912 -944 720 -944
WIRE 1552 -944 1360 -944
WIRE -496 -928 -496 -960
WIRE 1360 -928 1360 -944
WIRE 208 -896 208 -1040
WIRE 496 -896 208 -896
WIRE 608 -880 608 -928
WIRE 144 -864 144 -1040
WIRE 496 -864 144 -864
WIRE 912 -848 912 -944
WIRE 1264 -848 912 -848
WIRE 1472 -848 1456 -848
WIRE -496 -816 -496 -848
WIRE 1264 -816 1200 -816
WIRE 1472 -784 1456 -784
WIRE 144 -752 144 -864
WIRE 496 -752 144 -752
WIRE 640 -736 608 -736
WIRE 240 -720 240 -976
WIRE 496 -720 240 -720
WIRE 640 -720 640 -736
WIRE 656 -720 640 -720
WIRE 816 -704 768 -704
WIRE 656 -688 624 -688
WIRE 816 -688 816 -704
WIRE 1040 -672 928 -672
WIRE 1360 -672 1360 -704
WIRE 1520 -672 1360 -672
WIRE 336 -656 336 -1040
WIRE 624 -656 624 -688
WIRE 624 -656 336 -656
WIRE 1552 -656 1552 -944
WIRE 1552 -656 1360 -656
WIRE 1360 -640 1360 -656
WIRE 112 -624 112 -1040
WIRE 816 -624 816 -656
WIRE 816 -624 112 -624
WIRE 304 -560 304 -1008
WIRE 496 -560 304 -560
WIRE 1040 -560 1040 -672
WIRE 1264 -560 1040 -560
WIRE 1472 -560 1456 -560
WIRE 688 -544 608 -544
WIRE 272 -528 272 -1040
WIRE 496 -528 272 -528
WIRE 1200 -528 1200 -816
WIRE 1264 -528 1200 -528
WIRE 688 -512 688 -544
WIRE 1136 -496 800 -496
WIRE 1472 -496 1456 -496
WIRE 336 -448 336 -656
WIRE 496 -448 336 -448
WIRE 688 -432 688 -480
WIRE 688 -432 608 -432
WIRE 144 -416 144 -752
WIRE 496 -416 144 -416
WIRE 1360 -384 1360 -416
WIRE 1520 -384 1520 -672
WIRE 1520 -384 1360 -384
WIRE 1136 -336 1136 -496
WIRE 1264 -336 1136 -336
WIRE 1552 -336 1552 -656
WIRE 1552 -336 1360 -336
WIRE 144 -320 144 -416
WIRE 496 -320 144 -320
WIRE 1360 -320 1360 -336
WIRE 768 -304 608 -304
WIRE 240 -288 240 -720
WIRE 496 -288 240 -288
WIRE 768 -272 768 -304
WIRE 832 -272 768 -272
WIRE 1088 -256 944 -256
WIRE 832 -240 768 -240
WIRE 1264 -240 1264 -336
WIRE 1472 -240 1456 -240
WIRE 208 -208 208 -896
WIRE 656 -208 208 -208
WIRE 1200 -208 1200 -528
WIRE 1264 -208 1200 -208
WIRE 768 -192 768 -240
WIRE 656 -176 608 -176
WIRE 1472 -176 1456 -176
WIRE 272 -160 272 -528
WIRE 496 -160 272 -160
WIRE 608 -144 608 -176
WIRE 112 -128 112 -624
WIRE 496 -128 112 -128
WIRE 1088 -64 1088 -256
WIRE 1248 -64 1088 -64
WIRE 1360 -64 1360 -96
WIRE 1520 -64 1520 -384
WIRE 1520 -64 1360 -64
WIRE 112 -32 112 -128
WIRE 144 -32 144 -320
WIRE 176 -32 176 -1040
WIRE 208 -32 208 -208
WIRE 240 -32 240 -288
WIRE 272 -32 272 -160
WIRE 304 -32 304 -560
WIRE 336 -32 336 -448
WIRE 1552 -16 1552 -336
WIRE 1552 -16 1360 -16
WIRE 1360 16 1360 -16
WIRE 544 64 368 64
WIRE 656 64 544 64
WIRE 320 80 240 80
WIRE 784 80 768 80
WIRE 1008 80 1008 64
WIRE 1008 80 784 80
WIRE 1024 80 1024 64
WIRE 1200 80 1200 -208
WIRE 1200 80 1024 80
WIRE 656 96 624 96
WIRE 1248 96 1248 -64
WIRE 1264 96 1248 96
WIRE 1472 96 1456 96
WIRE 624 128 624 96
WIRE 784 128 624 128
WIRE 1200 128 1200 80
WIRE 1264 128 1200 128
WIRE 544 144 496 144
WIRE 320 160 320 128
WIRE 320 160 240 160
WIRE 544 160 544 144
WIRE 1472 160 1456 160
WIRE 240 176 240 160
WIRE 368 176 368 144
WIRE 768 176 768 80
WIRE 768 176 624 176
WIRE 624 208 624 176
WIRE 656 208 624 208
WIRE 784 224 784 128
WIRE 784 224 768 224
WIRE 544 240 368 240
WIRE 656 240 544 240
WIRE 320 256 240 256
WIRE 496 272 496 144
WIRE 1200 272 1200 128
WIRE 1360 304 1360 240
WIRE 1520 304 1520 -64
WIRE 1520 304 1360 304
WIRE 1200 320 1200 272
WIRE 1200 320 1184 320
WIRE 320 336 320 304
WIRE 320 336 240 336
WIRE 1184 336 1184 320
WIRE 1200 336 1184 336
WIRE 240 352 240 336
WIRE 368 352 368 320
WIRE 496 384 496 352
WIRE 1360 384 1360 304
WIRE 1552 384 1552 -16
WIRE 1200 416 1200 336
WIRE 1360 416 1360 384
WIRE 1552 416 1552 384
WIRE 1200 512 1200 496
WIRE 1360 512 1360 496
WIRE 1552 512 1552 496
FLAG 1200 512 0
FLAG 1360 512 0
FLAG 1552 512 0
FLAG 1200 272 Clk
FLAG 1552 384 Vcc
FLAG 1360 384 Reset
FLAG 1472 96 Q0
FLAG 1472 -240 Q1
FLAG 1472 -560 Q2
FLAG 1472 -848 Q3
FLAG 144 -1040 Q3
FLAG 208 -1040 Q2
FLAG 272 -1040 Q1
FLAG 368 352 0
FLAG 368 176 0
FLAG 496 384 0
FLAG 336 -1040 Q0
FLAG 1472 160 _Q0
FLAG 1472 -176 _Q1
FLAG 1472 -496 _Q2
FLAG 1472 -784 _Q3
FLAG 304 -1040 _Q0
FLAG 240 -1040 _Q1
FLAG 176 -1040 _Q2
FLAG -496 -816 0
FLAG -496 -960 Out
FLAG 240 176 0
FLAG 240 352 0
FLAG 784 224 U2-8
FLAG 784 80 U2-11
FLAG 112 -1040 _Q3
SYMBOL voltage 1200 400 R0
WINDOW 123 0 0 Left 2
WINDOW 39 0 0 Left 2
WINDOW 3 24 44 Invisible 2
SYMATTR Value PULSE(0 5 1 1n 1n 0.5 1 20)
SYMATTR InstName V1
SYMBOL voltage 1360 400 R0
WINDOW 123 0 0 Left 2
WINDOW 39 0 0 Left 2
WINDOW 3 24 44 Invisible 2
SYMATTR Value PULSE(5 0 0 1n 1n 1n 0.005 1)
SYMATTR InstName V2
SYMBOL 74hct74 1360 -640 R0
SYMATTR InstName U5_2
SYMBOL 74hct74 1360 -320 R0
SYMATTR InstName U6_1
SYMBOL 74hct74 1360 16 R0
SYMATTR InstName U6_2
SYMBOL 74hct74 1360 -928 R0
SYMATTR InstName U5_1
SYMBOL voltage 1552 400 R0
WINDOW 123 0 0 Left 2
WINDOW 39 0 0 Left 2
SYMATTR InstName V3
SYMATTR Value 5
SYMBOL 74hct32.i 656 -1008 R0
SYMATTR InstName U1_3
SYMBOL 74hct08.i 544 -1056 R0
WINDOW 0 -21 17 Left 2
WINDOW 3 -45 109 Left 2
SYMATTR InstName U4_3
SYMBOL 74hct32.i 864 -736 R0
SYMATTR InstName U1_1
SYMBOL 74hct08.i 544 -800 R0
SYMATTR InstName U4_2
SYMBOL 74hct08.i 544 -944 R0
WINDOW 0 -19 111 Left 2
WINDOW 3 -50 132 Left 2
SYMATTR InstName U4_4
SYMBOL 74hct32.i 736 -560 R0
WINDOW 3 -40 114 Left 2
SYMATTR InstName U1_4
SYMBOL 74hct32.i 704 -768 R0
SYMATTR InstName U1_2
SYMBOL 74hct00.i 704 16 R0
WINDOW 0 -13 -10 Left 2
WINDOW 3 -46 15 Left 2
SYMATTR InstName U2_3
SYMBOL 74hct00.i 704 160 R0
WINDOW 0 -19 3 Left 2
WINDOW 3 -47 112 Left 2
SYMATTR InstName U2_4
SYMBOL res 528 48 R0
SYMATTR InstName R5
SYMATTR Value 1k
SYMBOL res 528 144 R0
SYMATTR InstName R6
SYMATTR Value 1k
SYMBOL sw 368 160 M180
WINDOW 0 24 16 Invisible 2
WINDOW 3 45 50 Left 2
SYMATTR InstName S3
SYMBOL sw 368 336 M180
WINDOW 0 24 16 Invisible 2
WINDOW 3 41 55 Left 2
SYMATTR InstName S1
SYMBOL voltage 240 64 R0
WINDOW 123 0 0 Left 2
WINDOW 39 0 0 Left 2
WINDOW 3 44 88 Invisible 2
WINDOW 0 44 60 Left 2
SYMATTR Value PWL(0 0 0.999 0 1.001 1 1.049 1 1.051 0 1.099 0 1.101 1 1.399 1 1.401 0 1.999 0 2.001 1 2.049 1 2.051 0 2.099 0 2.101 1 2.399 1 2.401 0 2.999 0 3.001 1 3.049 1 3.051 0 3.099 0 3.101 1 3.399 1 3.401 0 3.999 0 4.001 1 4.049 1 4.051 0 4.099 0 4.101 1 4.399 1 4.401 0 4.999 0 5.001 1 5.049 1 5.051 0 5.099 0 5.101 1 5.399 1 5.401 0 5.999 0 6.001 1 6.049 1 6.051 0 6.099 0 6.101 1 6.399 1 6.401 0 6.999 0 7.001 1 7.049 1 7.051 0 7.099 0 7.101 1 7.399 1 7.401 0 7.999 0 8.001 1 8.049 1 8.051 0 8.099 0 8.101 1 8.399 1 8.401 0 8.999 0 9.001 1 9.049 1 9.051 0 9.099 0 9.101 1 9.399 1 9.401 0)
SYMATTR InstName V4
SYMBOL voltage 240 240 R0
WINDOW 123 0 0 Left 2
WINDOW 39 0 0 Left 2
WINDOW 3 24 44 Invisible 2
WINDOW 0 43 58 Left 2
SYMATTR Value PWL(0 1 0.899 1 0.901 0 1.499 0 1.501 1 1.549 1 1.551 0 1.599 0 1.601 1 1.649 1 1.651 0 1.699 0 1.701 1 1.899 1 1.901 0 2.499 0 2.501 1 2.549 1 2.551 0 2.599 0 2.601 1 2.899 1 2.901 0 3.499 0 3.501 1 3.549 1 3.551 0 3.599 0 3.601 1 3.899 1 3.901 0 4.499 0 4.501 1 4.549 1 4.551 0 4.599 0 4.601 1 4.899 1 4.901 0 5.499 0 5.501 1 5.549 1 5.551 0 5.599 0 5.601 1 5.899 1 5.901 0 6.499 0 6.501 1 6.549 1 6.551 0 6.599 0 6.601 1 6.899 1 6.901 0 7.499 0 7.501 1 7.549 1 7.551 0 7.599 0 7.601 1 7.899 1 7.901 0 8.499 0 8.501 1 8.549 1 8.551 0 8.599 0 8.601 1 8.899 1 8.901 0 9.499 0 9.501 1 9.549 1 9.551 0 9.599 0 9.601 1 9.899 1 9.901 0)
SYMATTR InstName V5
SYMBOL voltage 496 256 R0
WINDOW 123 0 0 Left 2
WINDOW 39 0 0 Left 2
SYMATTR InstName V6
SYMATTR Value 5
SYMBOL bv -496 -944 R0
WINDOW 0 38 24 Left 2
WINDOW 3 40 68 Left 2
SYMATTR InstName BV
SYMATTR Value V=(V(q0)+2*V(q1)+4*V(q2)+8*V(q3))/5.01
SYMBOL extras\\74HCT\\74hct08.i 544 -608 R0
SYMATTR InstName U1
SYMBOL extras\\74HCT\\74hct08.i 544 -368 R0
SYMATTR InstName U2
SYMBOL extras\\74HCT\\74hct08.i 544 -496 R0
SYMATTR InstName U3
SYMBOL extras\\74HCT\\74hct08.i 544 -208 R0
SYMATTR InstName U4
SYMBOL extras\\74HCT\\74hct08.i 704 -256 R0
SYMATTR InstName U5
SYMBOL extras\\74HCT\\74hct32.i 880 -320 R0
SYMATTR InstName U6
TEXT 224 -8 Left 2 !.model SW SW( Vt=0.5 Vh=0 )
TEXT 976 184 Left 2 !.tran 15
TEXT 656 232 Left 2 ;9
TEXT 640 200 Left 2 ;10
TEXT 640 88 Left 2 ;12
TEXT 640 56 Left 2 ;13
TEXT 1768 -544 Left 2 !.include /home/andrej/.wine/drive_c/users/andrej/My Documents/LTspiceXVII/lib/sym/extras/74HCT/74hct.lib
