Version 4
SHEET 1 880 680
WIRE 160 64 48 64
WIRE 512 64 160 64
WIRE 512 128 512 64
WIRE 48 144 48 64
WIRE 48 272 48 224
WIRE 512 272 512 208
FLAG 48 272 0
FLAG 160 64 Rect
FLAG 512 272 0
SYMBOL voltage 48 128 R0
WINDOW 123 0 0 Left 2
WINDOW 39 0 0 Left 2
SYMATTR InstName V1
SYMATTR Value PULSE(-0.5 0.5 0 1p 1p 500n 1000n)
SYMBOL Misc\\EuropeanResistor 496 112 R0
SYMATTR InstName R1
SYMATTR Value 50
TEXT 14 296 Left 2 !.tran 0 10000u 0 1n
